recall.rec: written by SWAT+ editor v1.2.3 on 2020-11-06 14:57
      id  name               rec_typ  file              
       1  pt06                     4  pt06              
       2  pt08                     4  pt08              
       3  pt10                     4  pt10              
       4  pt12                     4  pt12              
       5  pt14                     4  pt14              
       6  pt16                     4  pt16              
       7  pt17                     4  pt17              
       8  pt19                     4  pt19              
       9  pt21                     4  pt21              
      10  pt22                     4  pt22              
      11  pt24                     4  pt24              
      12  pt26                     4  pt26              
      13  pt28                     4  pt28              
      14  pt30                     4  pt30              
      15  pt32                     4  pt32              
      16  pt34                     4  pt34              
      17  pt35                     4  pt35              
      18  pt37                     4  pt37              
      19  pt39                     4  pt39              
      20  pt41                     4  pt41              
      21  pt42                     4  pt42              
      22  pt44                     4  pt44              
      23  pt46                     4  pt46              
      24  pt48                     4  pt48              
      25  pt50                     4  pt50              
      26  pt52                     4  pt52              
      27  pt54                     4  pt54              
      28  pt56                     4  pt56              
      29  pt58                     4  pt58              
      30  pt60                     4  pt60              
      31  pt62                     4  pt62              
      32  pt64                     4  pt64              
      33  pt66                     4  pt66              
      34  pt68                     4  pt68              
      35  pt70                     4  pt70              
      36  pt72                     4  pt72              
      37  pt74                     4  pt74              
